Version 4
SHEET 1 880 680
WIRE 240 -368 -48 -368
WIRE 496 -368 240 -368
WIRE 608 -368 496 -368
WIRE 496 -320 496 -368
WIRE -48 -304 -48 -368
WIRE 240 -224 240 -368
WIRE 496 -192 496 -240
WIRE -240 -160 -400 -160
WIRE -48 -160 -48 -240
WIRE -48 -160 -160 -160
WIRE 112 -160 -48 -160
WIRE -400 -144 -400 -160
WIRE 608 -144 608 -368
WIRE 608 -144 496 -144
WIRE -48 -128 -48 -160
WIRE 496 -128 496 -144
WIRE -400 -32 -400 -64
WIRE -48 -32 -48 -64
WIRE -48 -32 -400 -32
WIRE -48 0 -48 -32
WIRE 496 64 496 -48
WIRE 496 64 368 64
WIRE 496 128 496 64
WIRE 496 256 496 208
WIRE 32 352 -384 352
WIRE 112 352 64 352
WIRE 416 352 368 352
WIRE -384 400 -384 352
WIRE 64 416 64 352
WIRE 112 416 64 416
WIRE 64 480 64 416
WIRE 112 480 64 480
WIRE -384 512 -384 480
WIRE 64 560 64 480
WIRE 176 560 176 528
WIRE 176 560 64 560
WIRE 304 560 304 528
WIRE 304 560 176 560
WIRE 416 560 416 352
WIRE 416 560 304 560
WIRE 304 592 304 560
FLAG 496 256 0
FLAG 304 592 0
FLAG 496 -192 0
FLAG -384 512 0
FLAG -48 0 0
SYMBOL Switches\\MAX4051A 240 96 R0
SYMATTR InstName U1
SYMBOL res 480 112 R0
SYMATTR InstName R1
SYMATTR Value 2.7k
SYMBOL res 480 -144 R0
SYMATTR InstName R2
SYMATTR Value 2.7k
SYMBOL voltage 496 -336 R0
WINDOW 123 0 0 Left 0
WINDOW 39 24 44 Left 2
SYMATTR InstName V1
SYMATTR Value 3.3
SYMBOL res -144 -176 R90
WINDOW 0 0 56 VBottom 2
WINDOW 3 32 56 VTop 2
SYMATTR InstName R3
SYMATTR Value 1k
SYMBOL voltage -384 384 R0
WINDOW 123 0 0 Left 0
WINDOW 39 0 0 Left 0
SYMATTR InstName V3
SYMATTR Value SINE(0 3.3 0 0 0 0u 10u)
SYMBOL schottky -32 -240 R180
WINDOW 0 24 64 Left 2
WINDOW 3 24 0 Left 2
SYMATTR InstName D2
SYMATTR Value BAT54
SYMATTR Description Diode
SYMATTR Type diode
SYMBOL schottky -32 -64 R180
WINDOW 0 24 64 Left 2
WINDOW 3 24 0 Left 2
SYMATTR InstName D3
SYMATTR Value BAT54
SYMATTR Description Diode
SYMATTR Type diode
SYMBOL voltage -400 -160 R0
WINDOW 123 0 0 Left 0
WINDOW 39 24 44 Left 2
SYMATTR SpiceLine Cpar=20p
SYMATTR InstName V2
SYMATTR Value SINE(0 10 50000)
TEXT -176 616 Left 2 !.tran 0.1m
